*SPEF "ieee 1481-1999"
*DESIGN "user_project_wrapper"
*DATE "11:11:11 Fri 11 11, 1111"
*VENDOR "OpenRCX"
*PROGRAM "Parallel Extraction"
*VERSION "1.0"
*DESIGN_FLOW "NAME_SCOPE LOCAL" "PIN_CAP NONE"
*DIVIDER /
*DELIMITER :
*BUS_DELIMITER []
*T_UNIT 1 NS
*C_UNIT 1 PF
*R_UNIT 1 OHM
*L_UNIT 1 HENRY

*NAME_MAP
*1 iClk
*2 iRst_n
*3 iSDAT
*4 iSVAL
*5 iSize[0]
*6 iSize[1]
*7 iSize[2]
*8 iValid
*9 oSDAT
*10 oSVAL
*11 mprj

*PORTS
iClk I
iRst_n I
iSDAT I
iSVAL I
iSize[0] I
iSize[1] I
iSize[2] I
iValid I
oSDAT O
oSVAL O

*D_NET *1 0.402305
*CONN
*P iClk I
*I *11:iClk I *D user_proj_example
*CAP
1 iClk 0.00071616
2 *11:iClk 0.000513406
3 *1:14 0.0308001
4 *1:13 0.0302867
5 *1:11 0.109135
6 *1:10 0.109135
7 *1:8 0.0218557
8 *1:7 0.0225719
9 *1:14 *4:11 0.051295
10 *1:14 *5:17 0.0259965
*RES
1 iClk *1:7 24.7252 
2 *1:7 *1:8 609.124 
3 *1:8 *1:10 4.5 
4 *1:10 *1:11 3080.1 
5 *1:11 *1:13 4.5 
6 *1:13 *1:14 1178.7 
7 *1:14 *11:iClk 18.9605 
*END

*D_NET *2 0.218315
*CONN
*P iRst_n I
*I *11:iRst_n I *D user_proj_example
*CAP
1 iRst_n 0.00100189
2 *11:iRst_n 0.000121567
3 *2:14 0.0301552
4 *2:13 0.0300336
5 *2:11 0.0780003
6 *2:10 0.0790022
*RES
1 iRst_n *2:10 14.8015 
2 *2:10 *2:11 2174.77 
3 *2:11 *2:13 4.5 
4 *2:13 *2:14 847.493 
5 *2:14 *11:iRst_n 3.45636 
*END

*D_NET *3 0.294573
*CONN
*P iSDAT I
*I *11:iSDAT I *D user_proj_example
*CAP
1 iSDAT 0.000209263
2 *11:iSDAT 0.000246217
3 *3:70 0.016049
4 *3:69 0.0158028
5 *3:67 0.0459697
6 *3:66 0.0465321
7 *3:63 0.00142767
8 *3:55 0.00357113
9 *3:54 0.00300371
10 *3:49 0.00205113
11 *3:48 0.00290927
12 *3:40 0.00242559
13 *3:31 0.00788551
14 *3:30 0.00693341
15 *3:25 0.00870072
16 *3:24 0.00870072
17 *3:19 0.00351651
18 *3:18 0.00319894
19 *3:16 0.0162685
20 *3:15 0.0162685
21 *3:13 0.0398185
22 *3:11 0.0400277
23 *3:63 *9:10 0.00101173
24 *3:66 *10:10 0.00204443
25 *3:67 *9:13 0
*RES
1 iSDAT *3:11 7.31577 
2 *3:11 *3:13 1124.05 
3 *3:13 *3:15 4.5 
4 *3:15 *3:16 453.28 
5 *3:16 *3:18 4.5 
6 *3:18 *3:19 89.8655 
7 *3:19 *3:24 17.4878 
8 *3:24 *3:25 236.449 
9 *3:25 *3:30 17.4878 
10 *3:30 *3:31 179.975 
11 *3:31 *3:40 47.5411 
12 *3:40 *3:48 45.282 
13 *3:48 *3:49 49.1707 
14 *3:49 *3:54 16.9332 
15 *3:54 *3:55 76.1621 
16 *3:55 *3:63 45.4382 
17 *3:63 *3:66 27.4075 
18 *3:66 *3:67 1297.42 
19 *3:67 *3:69 4.5 
20 *3:69 *3:70 442.188 
21 *3:70 *11:iSDAT 11.3639 
*END

*D_NET *4 0.225251
*CONN
*P iSVAL I
*I *11:iSVAL I *D user_proj_example
*CAP
1 iSVAL 0.000845002
2 *11:iSVAL 0.000556908
3 *4:11 0.0523328
4 *4:10 0.0517759
5 *4:8 0.0338
6 *4:7 0.0346451
7 *1:14 *4:11 0.051295
*RES
1 iSVAL *4:7 6.03264 
2 *4:7 *4:8 953.798 
3 *4:8 *4:10 4.5 
4 *4:10 *4:11 1665.64 
5 *4:11 *11:iSVAL 19.9376 
*END

*D_NET *5 0.275468
*CONN
*P iSize[0] I
*I *11:iSize[0] I *D user_proj_example
*CAP
1 iSize[0] 0.00102685
2 *11:iSize[0] 0.000581173
3 *5:17 0.00534016
4 *5:16 0.00475899
5 *5:14 0.0716929
6 *5:13 0.0716929
7 *5:11 0.0414757
8 *5:10 0.0425025
9 *5:17 *7:17 0.0104003
10 *1:14 *5:17 0.0259965
*RES
1 iSize[0] *5:10 15.2168 
2 *5:10 *5:11 1155.96 
3 *5:11 *5:13 4.5 
4 *5:13 *5:14 2023.28 
5 *5:14 *5:16 4.5 
6 *5:16 *5:17 290.226 
7 *5:17 *11:iSize[0] 20.4994 
*END

*D_NET *6 0.236564
*CONN
*P iSize[1] I
*I *11:iSize[1] I *D user_proj_example
*CAP
1 iSize[1] 0.000189503
2 *11:iSize[1] 0.000492028
3 *6:16 0.0549862
4 *6:15 0.0544942
5 *6:13 0.0631064
6 *6:11 0.0632959
7 *6:16 *9:10 0
*RES
1 iSize[1] *6:11 6.75395 
2 *6:11 *6:13 1781.4 
3 *6:13 *6:15 4.5 
4 *6:15 *6:16 1525.33 
5 *6:16 *11:iSize[1] 18.0079 
*END

*D_NET *7 0.29769
*CONN
*P iSize[2] I
*I *11:iSize[2] I *D user_proj_example
*CAP
1 iSize[2] 0.00110945
2 *11:iSize[2] 0.000602609
3 *7:17 0.00321592
4 *7:16 0.00261332
5 *7:14 0.0970967
6 *7:13 0.0970967
7 *7:11 0.0422226
8 *7:10 0.043332
9 *5:17 *7:17 0.0104003
*RES
1 iSize[2] *7:10 15.632 
2 *7:10 *7:11 1147.64 
3 *7:11 *7:13 4.5 
4 *7:13 *7:14 2740 
5 *7:14 *7:16 4.5 
6 *7:16 *7:17 117.745 
7 *7:17 *11:iSize[2] 20.9147 
*END

*D_NET *8 0.158113
*CONN
*P iValid I
*I *11:iValid I *D user_proj_example
*CAP
1 iValid 0.00108474
2 *11:iValid 4.25268e-05
3 *8:14 0.00470434
4 *8:13 0.00466181
5 *8:11 0.0732674
6 *8:10 0.0743521
*RES
1 iValid *8:10 15.2168 
2 *8:10 *8:11 1991.75 
3 *8:11 *8:13 4.5 
4 *8:13 *8:14 131.183 
5 *8:14 *11:iValid 1.20912 
*END

*D_NET *9 0.183525
*CONN
*P oSDAT O
*I *11:oSDAT O *D user_proj_example
*CAP
1 oSDAT 0.00101225
2 *11:oSDAT 0.00029304
3 *9:16 0.0434058
4 *9:15 0.0423936
5 *9:13 0.025413
6 *9:12 0.025413
7 *9:10 0.0221447
8 *9:9 0.0224378
9 *3:63 *9:10 0.00101173
10 *3:67 *9:13 0
11 *6:16 *9:10 0
*RES
1 *11:oSDAT *9:9 12.5852 
2 *9:9 *9:10 628.535 
3 *9:10 *9:12 4.5 
4 *9:12 *9:13 716.896 
5 *9:13 *9:15 4.5 
6 *9:15 *9:16 1180.92 
7 *9:16 oSDAT 14.8015 
*END

*D_NET *10 0.168013
*CONN
*P oSVAL O
*I *11:oSVAL O *D user_proj_example
*CAP
1 oSVAL 0.00110945
2 *11:oSVAL 8.21432e-05
3 *10:10 0.0829023
4 *10:9 0.081875
5 *3:66 *10:10 0.00204443
*RES
1 *11:oSVAL *10:9 6.64954 
2 *10:9 *10:10 2230.23 
3 *10:10 oSVAL 15.632 
*END
